Mass Spectrum: Cyclopropylamine
Formula: C3 H7 N
CAS: 765-30-0
Molecular weight: 57
Origin: NIST Mass Spectrometry Data Center, 1998.
m/z	RELATIVE INTENSITY
12	10
13	20
14	70
15	130
16	20
17	10
24	10
25	70
26	450
27	800
28	4620
29	1310
30	2690
31	50
36	20
37	160
38	300
39	1050
40	320
41	540
42	650
43	60
44	10
50	30
51	150
52	320
53	40
54	610
55	10
56	9999
57	2640
58	90
